   13
thf
 O      1.160855     0.000004     0.254433
 C      0.422644     1.126172    -0.181882
 C      0.422653    -1.126169    -0.181882
 C     -1.052626    -0.772975     0.059409
 C     -1.052631     0.772968     0.059409
 H      0.773478    -1.993170     0.381311
 H      0.612680    -1.303538    -1.252502
 H      0.773464     1.993176     0.381311
 H      0.612671     1.303542    -1.252502
 H     -1.702206     1.194463    -0.712561
 H     -1.390387     1.161167     1.023790
 H     -1.702199    -1.194475    -0.712562
 H     -1.390380    -1.161176     1.023791
