      34
None
 C  2.828793000  3.824558000  2.494509000
 C  1.374372000  3.799579000  2.012872000
 C  1.618337000  6.099581000  0.979499000
 C  2.898116000  6.232449000  1.737115000
 C  4.119943000  6.932040000  1.112965000
 C  5.371612000  6.353783000  2.004760000
 C  4.774654000  5.291379000  2.887589000
 C  0.325047000  3.538629000  3.061368000
 C  0.520189000  4.416050000  4.341208000
 C  1.253750000  3.951644000  5.444170000
 C  1.776356000  4.763276000  6.400638000
 C  1.513410000  6.123633000  6.521977000
 C  0.451553000  6.537519000  5.625660000
 C  0.080438000  5.731269000  4.542793000
 O  3.351525000  2.757776000  2.923062000
 O  1.182099000  7.023610000  0.201576000
 N  3.394907000  5.051766000  2.438024000
 N  0.940831000  4.978831000  1.255594000
 H  1.361284000  3.001649000  1.213469000
 H  0.051064000  4.814281000  0.692092000
 H  2.568927000  6.878092000  2.568449000
 H  4.323723000  6.540541000  0.111325000
 H  4.103825000  8.022851000  1.160503000
 H  6.219074000  6.067478000  1.407358000
 H  5.618306000  7.186336000  2.760916000
 H  4.861477000  5.651711000  3.901983000
 H  5.320685000  4.330144000  2.805762000
 H  0.209540000  2.409626000  3.342763000
 H -0.689467000  3.786166000  2.729580000
 H  1.573376000  2.922688000  5.443507000
 H  2.415239000  4.238456000  7.124643000
 H  2.099070000  6.790207000  7.108641000
 H  0.019646000  7.591295000  5.609664000
 H -0.691987000  6.173837000  3.884202000
